Version 4
SHEET 1 1256 680
WIRE 240 -688 -176 -688
WIRE 144 -448 48 -448
WIRE 176 -448 144 -448
WIRE 240 -448 240 -608
WIRE 240 -448 176 -448
WIRE 336 -448 240 -448
WIRE 368 -448 336 -448
WIRE 448 -448 368 -448
WIRE 1088 -432 1008 -432
WIRE -64 -416 -592 -416
WIRE 144 -400 144 -448
WIRE 144 -400 48 -400
WIRE 368 -400 368 -448
WIRE 448 -400 368 -400
WIRE -64 -368 -64 -416
WIRE 0 -368 -64 -368
WIRE 1008 -368 1008 -432
WIRE 1008 -368 496 -368
WIRE 256 -352 48 -352
WIRE 448 -352 256 -352
WIRE 256 -304 256 -352
WIRE 256 -304 48 -304
WIRE 432 -304 256 -304
WIRE 848 -304 640 -304
WIRE 1088 -304 1088 -432
WIRE 1088 -304 976 -304
WIRE 1184 -304 1088 -304
WIRE 48 -288 48 -304
WIRE -592 -272 -592 -416
WIRE -592 -272 -656 -272
WIRE -544 -272 -592 -272
WIRE -512 -272 -544 -272
WIRE -272 -272 -384 -272
WIRE -176 -272 -272 -272
WIRE 336 -256 336 -448
WIRE 432 -256 336 -256
WIRE 1184 -256 1184 -304
WIRE 176 -240 176 -448
WIRE 176 -240 48 -240
WIRE 640 -224 640 -304
WIRE 640 -224 480 -224
WIRE -176 -208 -176 -272
WIRE 0 -208 -176 -208
WIRE 240 -192 48 -192
WIRE 432 -192 432 -208
WIRE 432 -192 240 -192
WIRE 240 -160 240 -192
WIRE 736 -160 240 -160
WIRE 432 -128 336 -128
WIRE 240 -112 240 -160
WIRE 240 -112 48 -112
WIRE 336 -112 336 -128
WIRE 336 -112 240 -112
WIRE 48 -96 48 -112
WIRE 432 -80 272 -80
WIRE 160 -48 48 -48
WIRE 688 -48 480 -48
WIRE -544 -16 -544 -272
WIRE 0 -16 -544 -16
WIRE 48 32 48 0
WIRE 48 32 32 32
WIRE 432 32 432 -32
WIRE 112 80 32 80
WIRE 432 80 304 80
WIRE -16 112 -96 112
WIRE 848 112 848 -304
WIRE 848 112 480 112
WIRE 112 128 112 80
WIRE 112 128 32 128
WIRE 160 128 160 -48
WIRE 160 128 112 128
WIRE 176 128 160 128
WIRE 272 128 272 -80
WIRE 272 128 176 128
WIRE 304 128 304 80
WIRE 304 128 272 128
WIRE 432 128 304 128
WIRE 176 208 176 128
WIRE -96 256 -96 112
WIRE 1088 256 1088 -304
WIRE 1088 256 -96 256
WIRE -272 320 -272 -272
WIRE 688 320 688 -48
WIRE 688 320 -272 320
FLAG 176 208 0
FLAG -176 -688 0
FLAG 1184 -256 B
IOPIN 1184 -256 In
FLAG -656 -272 A
IOPIN -656 -272 In
FLAG 736 -160 Out
IOPIN 736 -160 Out
SYMBOL voltage 240 -592 M180
WINDOW 0 24 96 Left 2
WINDOW 3 24 16 Left 2
WINDOW 123 0 0 Left 2
WINDOW 39 0 0 Left 2
SYMATTR InstName V1
SYMATTR Value 2.5
SYMBOL inv1x -464 -272 R0
SYMATTR InstName X1
SYMBOL inv1x 928 -304 R180
SYMATTR InstName X2
SYMBOL nmos4 0 -96 R0
SYMATTR InstName M1
SYMATTR Value2 l=1.92u w=2.16u
SYMBOL nmos4 -16 32 R0
SYMATTR InstName M2
SYMATTR Value2 l=1.92u w=2.16u
SYMBOL nmos4 480 32 M0
SYMATTR InstName M3
SYMATTR Value2 l=1.92u w=2.16u
SYMBOL nmos4 480 -128 M0
SYMATTR InstName M4
SYMATTR Value2 l=1.92u w=2.16u
SYMBOL pmos4 0 -448 R0
SYMATTR InstName M5
SYMATTR Value2 l=1.92u w=6.48u
SYMBOL pmos4 0 -288 R0
SYMATTR InstName M6
SYMATTR Value2 l=1.92u w=6.48u
SYMBOL pmos4 496 -448 M0
SYMATTR InstName M7
SYMATTR Value2 l=1.92u w=6.48u
SYMBOL pmos4 480 -304 M0
SYMATTR InstName M8
SYMATTR Value2 l=1.92u w=6.48u
