Version 4
SHEET 1 1740 680
WIRE 96 96 -192 96
WIRE 1024 96 848 96
WIRE 32 144 -128 144
WIRE 288 144 160 144
WIRE 336 144 288 144
WIRE 608 144 464 144
WIRE 784 144 608 144
WIRE 1104 144 912 144
WIRE 1152 144 1104 144
WIRE 1456 144 1280 144
WIRE 1664 144 1456 144
WIRE 608 176 608 144
WIRE 544 256 -176 256
WIRE 848 272 848 192
WIRE 848 272 688 272
WIRE 1248 272 848 272
WIRE 400 288 208 288
WIRE -192 320 -192 96
WIRE -192 320 -272 320
WIRE -176 320 -176 256
WIRE -176 320 -192 320
WIRE -128 320 -176 320
WIRE 96 320 96 192
WIRE 96 320 0 320
WIRE 144 320 96 320
WIRE 208 320 208 288
WIRE 208 320 144 320
WIRE 544 320 544 256
WIRE 688 320 688 272
WIRE 688 320 544 320
WIRE 1104 320 1104 144
WIRE 1184 320 1104 320
WIRE 1456 320 1456 272
WIRE 1456 320 1312 320
WIRE 288 336 288 144
WIRE 336 336 288 336
WIRE 608 336 608 272
WIRE 608 336 464 336
WIRE -128 384 -128 320
WIRE 400 384 -128 384
WIRE 144 432 144 320
WIRE 1024 432 1024 96
WIRE 1024 432 144 432
WIRE 1248 432 1248 368
WIRE 1248 432 1024 432
WIRE 0 0 0 0
FLAG 1664 144 Q
IOPIN 1664 144 Out
FLAG -128 144 D
IOPIN -128 144 In
FLAG -272 320 CLK
IOPIN -272 320 In
SYMBOL transmissionGate 96 144 R0
SYMATTR InstName X1
SYMBOL transmissionGate 400 336 R0
SYMATTR InstName X2
SYMBOL transmissionGate 848 144 R0
SYMATTR InstName X3
SYMBOL transmissionGate 1248 320 R0
SYMATTR InstName X4
SYMBOL inv1x 384 144 R0
SYMATTR InstName X5
SYMBOL inv1x 608 192 R90
SYMATTR InstName X6
SYMBOL inv1x 1456 192 R90
SYMATTR InstName X7
SYMBOL inv1x 1200 144 R0
SYMATTR InstName X8
SYMBOL inv1x -80 320 R0
SYMATTR InstName X9
